<?xml version="1.0" encoding="UTF-8"?>
<netgenerateConfiguration xmlns:xsi="http://www.w3.org/2001/XMLSchema-instance" xsi:noNamespaceSchemaLocation="http://sumo.dlr.de/xsd/netgenerateConfiguration.xsd">
    <grid_network>
        <grid value="true"/>
        <grid.number value="3"/>
        <grid.length value="100"/>
        <grid.x-number value="3"/>
        <grid.y-number value="3"/>
        <grid.attach-length value="100"/>
        <grid.x-attach-length value="100"/>
        <grid.y-attach-length value="100"/>
    </grid_network>
    <output>
        <output-file value="red.net.xml"/>
    </output>
</netgenerateConfiguration> 